test/data/b4gic_blocker_placement_results.json
{
    "input": {
        "thermal_cap_y0": {
            "1": {
                "C": 90.0,
                "B": 93.94,
                "H": 64.94,
                "source_id": [
                    "thermal_cap_y0",
                    1
                ],
                "A": 100.0,
                "D": 85.42,
                "G": 70.0,
                "E": 80.0,
                "index": 1,
                "I": 59.97,
                "J": 56.92,
                "K": 50.0,
                "F": 74.73
            }
        },
        "time_elapsed": 10.0,
        "bus": {
            "4": {
                "lat": 40,
                "zone": 1,
                "lon": -87,
                "bus_i": 4,
                "bus_type": 3,
                "vmax": 1.15,
                "source_id": [
                    "bus",
                    4
                ],
                "area": 1,
                "vmin": 0.85,
                "bus_sid": "4 ",
                "index": 4,
                "va": 0.0,
                "vm": 1.1,
                "base_kv": 20.0
            },
            "1": {
                "lat": 40,
                "zone": 1,
                "lon": -89,
                "bus_i": 1,
                "bus_type": 1,
                "vmax": 1.15,
                "source_id": [
                    "bus",
                    1
                ],
                "area": 1,
                "vmin": 0.85,
                "bus_sid": "1 ",
                "index": 1,
                "va": 0.0,
                "vm": 1.1,
                "base_kv": 765.0
            },
            "2": {
                "lat": 40,
                "zone": 1,
                "lon": -87,
                "bus_i": 2,
                "bus_type": 1,
                "vmax": 1.15,
                "source_id": [
                    "bus",
                    2
                ],
                "area": 1,
                "vmin": 0.85,
                "bus_sid": "2 ",
                "index": 2,
                "va": 0.0,
                "vm": 1.1,
                "base_kv": 765.0
            },
            "3": {
                "lat": 40,
                "zone": 1,
                "lon": -89,
                "bus_i": 3,
                "bus_type": 1,
                "vmax": 1.15,
                "source_id": [
                    "bus",
                    3
                ],
                "area": 1,
                "vmin": 0.85,
                "bus_sid": "3 ",
                "index": 3,
                "va": 0.0,
                "vm": 1.1,
                "base_kv": 20.0
            }
        },
        "source_type": "matpower",
        "name": "b4gic",
        "source_version": "2",
        "gen": {
            "1": {
                "ncost": 3,
                "qc1max": 0.0,
                "pg": 0.0,
                "model": 2,
                "shutdown": 0.0,
                "startup": 0.0,
                "gen_sid": "1 ",
                "qc2max": 0.0,
                "ramp_agc": 0.0,
                "bus_i": 4,
                "qg": 0.0,
                "gen_bus": 4,
                "pmax": 20.0,
                "ramp_10": 0.0,
                "vg": 1.1,
                "mbase": 100.0,
                "source_id": [
                    "gen",
                    1
                ],
                "pc2": 0.0,
                "index": 1,
                "cost": [
                    1100.0,
                    500.0,
                    0.0
                ],
                "qmax": 20.0,
                "gen_status": 1,
                "qmin": -20.0,
                "qc1min": 0.0,
                "qc2min": 0.0,
                "pc1": 0.0,
                "ramp_q": -10.0,
                "ramp_30": 0.0,
                "pmin": 0.0,
                "apf": 0.0
            }
        },
        "branch": {
            "1": {
                "br_r": 0.0001,
                "gmd_br_series": -1,
                "rate_a": 20.0,
                "hotspot_coeff": 0.63,
                "shift": 0.0,
                "gmd_k": 1.793,
                "lo_bus": 3,
                "xfmr": 1,
                "tbus": 3,
                "br_x": 0.004,
                "topoil_init": 0,
                "g_to": 0.0,
                "hotspot_instant_limit": 280,
                "topoil_rated": 75,
                "fbus": 1,
                "g_fr": 0.0,
                "source_id": [
                    "branch",
                    1
                ],
                "b_fr": 0.0,
                "f_bus": 1,
                "gmd_br_hi": 1,
                "baseMVA": 100,
                "br_status": 1,
                "topoil_initialized": 1,
                "hi_bus": 1,
                "config": "gwye-delta",
                "topoil_time_const": 71,
                "t_bus": 3,
                "b_to": 0.0,
                "index": 1,
                "gmd_br_common": -1,
                "angmin": -0.5235987755982988,
                "temperature_ambient": 25,
                "angmax": 0.5235987755982988,
                "transformer": true,
                "hotspot_avg_limit": 240,
                "hotspot_rated": 150,
                "branch_sid": "1 ",
                "gmd_br_lo": -1,
                "tap": 1.0,
                "type": "xfmr"
            },
            "2": {
                "br_r": 0.000513,
                "gmd_br_series": -1,
                "rate_a": 20.0,
                "hotspot_coeff": -1.0,
                "shift": 0.0,
                "gmd_k": -1.0,
                "lo_bus": 2,
                "xfmr": 0,
                "tbus": 2,
                "br_x": 0.01,
                "topoil_init": -1,
                "g_to": 0.0,
                "hotspot_instant_limit": -1,
                "topoil_rated": -1,
                "fbus": 1,
                "g_fr": 0.0,
                "source_id": [
                    "branch",
                    2
                ],
                "b_fr": 0.0,
                "f_bus": 1,
                "gmd_br_hi": -1,
                "baseMVA": 100,
                "br_status": 1,
                "topoil_initialized": -1,
                "hi_bus": 1,
                "config": "none",
                "topoil_time_const": -1,
                "t_bus": 2,
                "b_to": 0.0,
                "index": 2,
                "gmd_br_common": -1,
                "angmin": -0.5235987755982988,
                "temperature_ambient": -1,
                "angmax": 0.5235987755982988,
                "transformer": true,
                "hotspot_avg_limit": -1,
                "hotspot_rated": -1,
                "branch_sid": "2 ",
                "gmd_br_lo": -1,
                "tap": 1.0,
                "type": "line"
            },
            "3": {
                "br_r": 0.0001,
                "gmd_br_series": -1,
                "rate_a": 20.0,
                "hotspot_coeff": 0.63,
                "shift": 0.0,
                "gmd_k": 1.793,
                "lo_bus": 4,
                "xfmr": 1,
                "tbus": 4,
                "br_x": 0.004,
                "topoil_init": 0,
                "g_to": 0.0,
                "hotspot_instant_limit": 280,
                "topoil_rated": 75,
                "fbus": 2,
                "g_fr": 0.0,
                "source_id": [
                    "branch",
                    3
                ],
                "b_fr": 0.0,
                "f_bus": 2,
                "gmd_br_hi": 3,
                "baseMVA": 100,
                "br_status": 1,
                "topoil_initialized": 1,
                "hi_bus": 2,
                "config": "gwye-delta",
                "topoil_time_const": 71,
                "t_bus": 4,
                "b_to": 0.0,
                "index": 3,
                "gmd_br_common": -1,
                "angmin": -0.5235987755982988,
                "temperature_ambient": 25,
                "angmax": 0.5235987755982988,
                "transformer": true,
                "hotspot_avg_limit": 240,
                "hotspot_rated": 150,
                "branch_sid": "3 ",
                "gmd_br_lo": -1,
                "tap": 1.0,
                "type": "xfmr"
            }
        },
        "gmd_branch": {
            "1": {
                "br_r": 0.1,
                "gmd_idc": -7.762308848285622e-9,
                "name": "dc_xf1_hi",
                "parent_index": 1,
                "br_v": 0.0,
                "len_km": 0.0,
                "source_id": [
                    "gmd_branch",
                    1
                ],
                "f_bus": 3,
                "br_status": 1,
                "t_bus": 1,
                "index": 1
            },
            "2": {
                "br_r": 1.00073475,
                "gmd_idc": -1.4171942887067864e-10,
                "name": "dc_br1",
                "parent_index": 2,
                "br_v": 170.78806587354,
                "len_km": 170.78806587354,
                "source_id": [
                    "gmd_branch",
                    2
                ],
                "f_bus": 3,
                "br_status": 1,
                "t_bus": 4,
                "index": 2
            },
            "3": {
                "br_r": 0.1,
                "gmd_idc": -8.045747706026979e-9,
                "name": "dc_xf2_hi",
                "parent_index": 3,
                "br_v": 0.0,
                "len_km": 0.0,
                "source_id": [
                    "gmd_branch",
                    3
                ],
                "f_bus": 4,
                "br_status": 1,
                "t_bus": 2,
                "index": 3
            }
        },
        "dcline": {},
        "storage": {},
        "switch": {},
        "baseMVA": 100,
        "thermal_cap_x0": {
            "1": {
                "C": 0.26438,
                "B": 0.25,
                "H": 0.36153,
                "source_id": [
                    "thermal_cap_x0",
                    1
                ],
                "A": 0.23033,
                "D": 0.2796,
                "G": 0.33942,
                "E": 0.3,
                "index": 1,
                "I": 0.38444,
                "J": 0.4,
                "K": 0.43894,
                "F": 0.31967
            }
        },
        "per_unit": true,
        "shunt": {},
        "gmd_bus": {
            "4": {
                "source_id": [
                    "gmd_bus",
                    4
                ],
                "g_gnd": 0,
                "blocker": 0,
                "name": "dc_bus2",
                "gmd_vdc": 85.39403293644953,
                "status": 1,
                "parent_index": 2,
                "index": 4,
                "blocker_placed": 0.0
            },
            "1": {
                "source_id": [
                    "gmd_bus",
                    1
                ],
                "g_gnd": 5,
                "blocker": 1,
                "name": "dc_sub1",
                "gmd_vdc": -85.39403293645607,
                "status": 1,
                "parent_index": 1,
                "index": 1,
                "blocker_placed": 1.0
            },
            "5": {
                "source_id": [
                    "gmd_bus",
                    5
                ],
                "g_gnd": 0,
                "blocker": 0,
                "name": "dc_bus3",
                "gmd_vdc": 0.0,
                "status": 1,
                "parent_index": 3,
                "index": 5,
                "blocker_placed": 0.0
            },
            "2": {
                "source_id": [
                    "gmd_bus",
                    2
                ],
                "g_gnd": 5,
                "blocker": 1,
                "name": "dc_sub2",
                "gmd_vdc": 85.39403293725411,
                "status": 1,
                "parent_index": 2,
                "index": 2,
                "blocker_placed": 1.0
            },
            "6": {
                "source_id": [
                    "gmd_bus",
                    6
                ],
                "g_gnd": 0,
                "blocker": 0,
                "name": "dc_bus4",
                "gmd_vdc": 0.0,
                "status": 1,
                "parent_index": 4,
                "index": 6,
                "blocker_placed": 0.0
            },
            "3": {
                "source_id": [
                    "gmd_bus",
                    3
                ],
                "g_gnd": 0,
                "blocker": 0,
                "name": "dc_bus1",
                "gmd_vdc": -85.39403293723231,
                "status": 1,
                "parent_index": 1,
                "index": 3,
                "blocker_placed": 0.0
            }
        },
        "load": {
            "1": {
                "source_id": [
                    "bus",
                    3
                ],
                "load_bus": 3,
                "status": 1,
                "qd": 2.0,
                "pd": 10.0,
                "index": 1
            }
        }
    },
    "result": {
        "solve_time": 0.08346199989318848,
        "optimizer": "Juniper",
        "termination_status": "LOCALLY_SOLVED",
        "dual_status": "FEASIBLE_POINT",
        "primal_status": "FEASIBLE_POINT",
        "objective": -2.0,
        "solution": {
            "bus": {
                "4": {
                    "source_id": [
                        "bus",
                        4
                    ],
                    "bus_type": 3,
                    "va": -1.9795896914676678e-21,
                    "vm": 1.030412366419657,
                    "index": 4
                },
                "1": {
                    "source_id": [
                        "bus",
                        1
                    ],
                    "bus_type": 1,
                    "va": -0.1378229170172375,
                    "vm": 0.9794602103964869,
                    "index": 1
                },
                "2": {
                    "source_id": [
                        "bus",
                        2
                    ],
                    "bus_type": 1,
                    "va": -0.0381873095165796,
                    "vm": 1.0146757066471328,
                    "index": 2
                },
                "3": {
                    "source_id": [
                        "bus",
                        3
                    ],
                    "bus_type": 1,
                    "va": -0.17975620480417967,
                    "vm": 0.969314280851838,
                    "index": 3
                }
            },
            "branch": {
                "1": {
                    "qlossf": 0.0,
                    "gmd_qloss": 0.0,
                    "lo_bus": 3,
                    "pt": -10.0,
                    "gmd_idc_mag": 2.3428645973727547e-8,
                    "source_id": [
                        "branch",
                        1
                    ],
                    "f_bus": 1,
                    "br_status": 1,
                    "hi_bus": 1,
                    "config": "gwye-delta",
                    "qlosst": 0.0,
                    "t_bus": 3,
                    "index": 1,
                    "qf": 2.442755598507663,
                    "qt": -1.9999999913115114,
                    "i_dc_mag": 2.3428645973727547e-8,
                    "type": "xfmr",
                    "pf": 10.011068890179905
                },
                "2": {
                    "qlossf": 0.0,
                    "gmd_qloss": 0.0,
                    "lo_bus": 2,
                    "pt": 10.067852296888645,
                    "gmd_idc_mag": 4.402172246733524e-7,
                    "source_id": [
                        "branch",
                        2
                    ],
                    "f_bus": 1,
                    "br_status": 1,
                    "hi_bus": 1,
                    "config": "none",
                    "qlosst": 0.0,
                    "t_bus": 2,
                    "index": 2,
                    "qf": -2.4427555805115357,
                    "qt": 3.549644600175057,
                    "i_dc_mag": 4.402172246733524e-7,
                    "type": "line",
                    "pf": -10.011068890179905
                },
                "3": {
                    "qlossf": 0.0,
                    "gmd_qloss": 0.0,
                    "lo_bus": 4,
                    "pt": 10.078921187094302,
                    "gmd_idc_mag": 2.399552368921026e-8,
                    "source_id": [
                        "branch",
                        3
                    ],
                    "f_bus": 2,
                    "br_status": 1,
                    "hi_bus": 2,
                    "config": "gwye-delta",
                    "qlosst": 0.0,
                    "t_bus": 4,
                    "index": 3,
                    "qf": -3.549644582801393,
                    "qt": 3.992400191027583,
                    "i_dc_mag": 2.399552368921026e-8,
                    "type": "xfmr",
                    "pf": -10.067852296888645
                }
            },
            "gen": {
                "1": {
                    "source_id": [
                        "gen",
                        1
                    ],
                    "qg": 3.992400182338232,
                    "gen_status": 1,
                    "pg": 10.078921187094302,
                    "gen_bus": 4,
                    "index": 1
                }
            },
            "gmd_branch": {
                "1": {
                    "br_r": 0.1,
                    "gmd_idc": -7.762308848285622e-9,
                    "name": "dc_xf1_hi",
                    "parent_index": 1,
                    "br_v": 0.0,
                    "len_km": 0.0,
                    "source_id": [
                        "gmd_branch",
                        1
                    ],
                    "f_bus": 3,
                    "br_status": 1,
                    "t_bus": 1,
                    "index": 1
                },
                "2": {
                    "br_r": 1.00073475,
                    "gmd_idc": -1.4171942887067864e-10,
                    "name": "dc_br1",
                    "parent_index": 2,
                    "br_v": 170.78806587354,
                    "len_km": 170.78806587354,
                    "source_id": [
                        "gmd_branch",
                        2
                    ],
                    "f_bus": 3,
                    "br_status": 1,
                    "t_bus": 4,
                    "index": 2
                },
                "3": {
                    "br_r": 0.1,
                    "gmd_idc": -8.045747706026979e-9,
                    "name": "dc_xf2_hi",
                    "parent_index": 3,
                    "br_v": 0.0,
                    "len_km": 0.0,
                    "source_id": [
                        "gmd_branch",
                        3
                    ],
                    "f_bus": 4,
                    "br_status": 1,
                    "t_bus": 2,
                    "index": 3
                }
            },
            "multinetwork": false,
            "baseMVA": 100,
            "per_unit": true,
            "multiinfrastructure": false,
            "bus_blockers": {
                "1": {
                    "z_blocker": 1.0
                },
                "2": {
                    "z_blocker": 1.0
                }
            },
            "gmd_bus": {
                "4": {
                    "source_id": [
                        "gmd_bus",
                        4
                    ],
                    "g_gnd": 0,
                    "blocker": 0,
                    "name": "dc_bus2",
                    "gmd_vdc": 85.39403293644953,
                    "status": 1,
                    "parent_index": 2,
                    "index": 4,
                    "blocker_placed": 0.0
                },
                "1": {
                    "source_id": [
                        "gmd_bus",
                        1
                    ],
                    "g_gnd": 5,
                    "blocker": 1,
                    "name": "dc_sub1",
                    "gmd_vdc": -85.39403293645607,
                    "status": 1,
                    "parent_index": 1,
                    "index": 1,
                    "blocker_placed": 1.0
                },
                "5": {
                    "source_id": [
                        "gmd_bus",
                        5
                    ],
                    "g_gnd": 0,
                    "blocker": 0,
                    "name": "dc_bus3",
                    "gmd_vdc": 0.0,
                    "status": 1,
                    "parent_index": 3,
                    "index": 5,
                    "blocker_placed": 0.0
                },
                "2": {
                    "source_id": [
                        "gmd_bus",
                        2
                    ],
                    "g_gnd": 5,
                    "blocker": 1,
                    "name": "dc_sub2",
                    "gmd_vdc": 85.39403293725411,
                    "status": 1,
                    "parent_index": 2,
                    "index": 2,
                    "blocker_placed": 1.0
                },
                "6": {
                    "source_id": [
                        "gmd_bus",
                        6
                    ],
                    "g_gnd": 0,
                    "blocker": 0,
                    "name": "dc_bus4",
                    "gmd_vdc": 0.0,
                    "status": 1,
                    "parent_index": 4,
                    "index": 6,
                    "blocker_placed": 0.0
                },
                "3": {
                    "source_id": [
                        "gmd_bus",
                        3
                    ],
                    "g_gnd": 0,
                    "blocker": 0,
                    "name": "dc_bus1",
                    "gmd_vdc": -85.39403293723231,
                    "status": 1,
                    "parent_index": 1,
                    "index": 3,
                    "blocker_placed": 0.0
                }
            }
        },
        "objective_lb": -1.9999454681807403
    }
}
